7
OH-chloromethane_reactant
Cl                    -1.734639   -1.328557   -0.036659
C                     1.189640    0.513352    0.060606
H                     0.700845    0.328949    1.027595
H                     0.395365    0.290375   -0.657803
H                     1.596424    1.541235   -0.015424
O                     2.339214   -0.326858   -0.108508
H                     2.031211   -1.210316    0.143974
