7
OH-chloromethane_reactant
Cl                    -1.685018   -0.016619    0.000009
C                     1.106906    0.003259   -0.000005
H                     0.710747   -0.506273    0.889651
H                     0.710739   -0.506354   -0.889611
H                     0.711393    1.023428   -0.000050
O                     2.540226    0.085698   -0.000016
H                     2.835201   -0.832651    0.000025
