7
OH-chloromethane_product
Cl                    -1.683375   -0.017091    0.000009
C                     1.105064    0.004787   -0.000005
H                     0.707155   -0.504930    0.889994
H                     0.707147   -0.505012   -0.889954
H                     0.712067    1.024709   -0.000050
O                     2.538493    0.085378   -0.000016
H                     2.832108   -0.833455    0.000025
