7
OH-chloromethane_product
Cl                    -1.010545   -0.679580   -0.432897
C                     0.294184    0.407265    0.516435
H                    -0.021854    0.216957    1.562570
H                     1.870954   -0.044981    0.010088
H                    -0.089335    1.420362    0.277593
O                     2.829595   -0.345772   -0.321961
H                     2.621922   -1.038611   -0.959920
