7
OH-chloromethane_ts
Cl                    -1.656778   -0.226369   -0.155535
C                     0.335555    0.064348    0.071902
H                     0.515016   -0.416194    1.037825
H                     0.996702   -0.331010   -0.729587
H                     0.398436    1.153960    0.142572
O                     2.724074   -0.063388   -0.432387
H                     2.798287   -0.901176    0.065216
